10
FA-DFM (in Angstrom)
C            1.699732   -0.296484    0.000000
F            3.059482   -0.217185    0.000000
F            1.203698    0.977804    0.000000
H            1.372395   -0.796063   -0.909000
H            1.372418   -0.796068    0.909000
H           -3.544270   -0.603076    0.000000
O           -3.173131    0.292203    0.000000
C           -1.835980    0.151508    0.000000
O           -1.251824   -0.906440    0.000000
H           -1.352033    1.133388    0.000000
