10
FA-DFM (in Angstrom)
C           -1.701786   -0.251856   -0.433980
F           -2.254177   -0.366639    0.799745
F           -0.999900    0.934972   -0.469732
H           -0.994331   -1.062072   -0.591246
H           -2.496675   -0.184845   -1.174821
H            0.858420    1.062883    0.092515
O            1.799533    0.991938    0.327434
C            2.163747   -0.278749    0.113791
O            1.441074   -1.158887   -0.294950
H            3.222648   -0.411745    0.364688
